Version 4
SHEET 1 880 1312
WIRE 208 256 208 192
WIRE 272 336 208 336
WIRE 416 336 352 336
FLAG 208 192 3V3
SYMBOL res 192 240 R0
SYMATTR InstName R1
SYMBOL res 368 320 R90
WINDOW 0 0 56 VBottom 2
WINDOW 3 32 56 VTop 2
SYMATTR InstName R2
SYMBOL cap 480 320 R90
WINDOW 0 0 32 VBottom 2
WINDOW 3 32 32 VTop 2
SYMATTR InstName C1
SYMBOL njf 592 400 R0
SYMATTR InstName J1
SYMATTR Value MyJFET
TEXT 168 528 Left 2 !.include BF245_JFET.txt
